placeholder to place TurbSim generated wind fields